Version 4
SHEET 1 1160 1040
WIRE 608 336 304 336
WIRE -176 384 -272 384
WIRE -16 384 -64 384
WIRE 432 400 432 384
WIRE 496 400 432 400
WIRE 560 400 496 400
WIRE -400 416 -400 352
WIRE -272 416 -272 384
WIRE 208 416 208 384
WIRE 496 416 496 400
WIRE 560 416 560 400
WIRE -16 432 -16 384
WIRE 432 496 432 400
WIRE 496 496 496 480
WIRE 560 496 560 480
WIRE 304 512 304 336
WIRE 368 512 304 512
WIRE -400 528 -400 496
WIRE -272 528 -272 496
WIRE 608 544 608 336
WIRE 608 544 496 544
WIRE 656 544 608 544
WIRE 784 544 736 544
WIRE 992 544 928 544
WIRE 1104 544 992 544
WIRE -16 576 -16 512
WIRE 96 576 -16 576
WIRE 208 576 208 480
WIRE 208 576 96 576
WIRE 304 576 208 576
WIRE 368 576 304 576
WIRE 992 576 992 544
WIRE 1104 592 1104 544
WIRE 96 624 96 576
WIRE 432 624 432 592
WIRE -16 656 -16 576
WIRE 208 672 208 576
WIRE 304 672 304 576
WIRE 992 688 992 656
WIRE 1104 688 1104 656
WIRE -16 768 -16 736
WIRE 208 768 208 736
WIRE 304 768 304 736
FLAG 432 624 0
FLAG -400 528 0
FLAG -272 528 0
FLAG 432 384 Vcc
FLAG 784 544 Out
IOPIN 784 544 Out
FLAG -176 384 In
IOPIN -176 384 Out
FLAG -64 384 In
IOPIN -64 384 In
FLAG 208 384 Vcc
FLAG 208 768 0
FLAG 992 688 0
FLAG 928 544 Out
IOPIN 928 544 In
FLAG -16 768 0
FLAG 304 768 0
FLAG 560 496 0
FLAG 496 496 0
FLAG -400 352 Vcc
FLAG 96 624 TP1
FLAG 1104 688 0
SYMBOL voltage -400 400 R0
SYMATTR InstName V1
SYMATTR Value 5
SYMBOL voltage -272 400 R0
SYMATTR InstName Sensor_Out
SYMATTR Value ""
SYMBOL schottky 224 736 R180
WINDOW 0 24 64 Left 2
WINDOW 3 24 0 Left 2
SYMATTR InstName D1
SYMATTR Value DI_BAT54S
SYMBOL schottky 224 480 R180
WINDOW 0 24 64 Left 2
WINDOW 3 24 0 Left 2
SYMATTR InstName D2
SYMATTR Value DI_BAT54S
SYMBOL AutoGenerated/TLV2371 416 544 R0
WINDOW 3 -16 -127 Top 2
SYMATTR InstName U1
SYMBOL res 976 560 R0
SYMATTR InstName R4
SYMATTR Value 700k
SYMBOL res -32 640 R0
SYMATTR InstName R2
SYMATTR Value 100k
SYMBOL res 752 528 R90
WINDOW 0 0 56 VBottom 2
WINDOW 3 32 56 VTop 2
SYMATTR InstName R3
SYMATTR Value 4.7k
SYMBOL res -32 416 R0
SYMATTR InstName R1
SYMATTR Value 200k
SYMBOL cap 320 672 M0
SYMATTR InstName C1
SYMATTR Value 10n
SYMBOL cap 544 416 R0
SYMATTR InstName C2
SYMATTR Value 100n
SYMBOL cap 480 416 R0
SYMATTR InstName C3
SYMATTR Value 3.3µ
SYMBOL cap 1088 592 R0
SYMATTR InstName C4
SYMATTR Value 15p
TEXT -448 616 Left 2 !.include TLV2371.mod
TEXT -448 688 Left 2 !.dc Sensor_Out 1.8 8.6
TEXT -448 592 Left 2 !.include DI_BAT54S.mod
TEXT 616 792 Left 2 ;Analog Input Board
TEXT 960 504 Left 2 ;ADC Input
RECTANGLE Normal 852 820 -112 304 2
